Circuit: * C:\Users\Admin PC\Documents\LTspiceXVII\ic design 19_4_2.asc

Warning: Pd = 0 is less than W.
Warning: Ps = 0 is less than W.
Warning: Pd = 0 is less than W.
Warning: Ps = 0 is less than W.
Warning: Pd = 0 is less than W.
Warning: Ps = 0 is less than W.

Date: Wed Apr 19 13:24:14 2023
Total elapsed time: 0.074 seconds.

tnom = 27
temp = 27
method = trap
totiter = 71
traniter = 0
tranpoints = 0
accept = 0
rejected = 0
matrix size = 4
fillins = 0
solver = Normal
Matrix Compiler1: 118 bytes object code size
Matrix Compiler2: 216 bytes object code size
