Circuit: * C:\Users\Admin PC\Documents\LTspiceXVII\ic design 19_4.asc

Warning: Pd = 0 is less than W.
Warning: Ps = 0 is less than W.

Date: Wed Apr 19 12:46:34 2023
Total elapsed time: 0.109 seconds.

tnom = 27
temp = 27
method = trap
totiter = 71
traniter = 0
tranpoints = 0
accept = 0
rejected = 0
matrix size = 9
fillins = 0
solver = Normal
Matrix Compiler1: 242 bytes object code size
Matrix Compiler2: 513 bytes object code size
